Version 4
SHEET 1 880 680
WIRE 208 48 16 48
WIRE 16 112 16 48
WIRE 208 160 208 128
FLAG 16 192 0
FLAG 208 240 0
DATAFLAG 208 48 "$-V(N002)"
DATAFLAG 208 160 ""
DATAFLAG 208 160 ""
DATAFLAG 208 160 ""
SYMBOL voltage 16 96 R0
SYMATTR InstName V1
SYMATTR Value 9
SYMBOL res 192 32 R0
SYMATTR InstName R1
SYMATTR Value 3k24
SYMBOL res 192 144 R0
SYMATTR InstName R2
SYMATTR Value 9k
TEXT -16 264 Left 2 !.op
