Version 4
SHEET 1 1572 1088
WIRE 528 -224 384 -224
WIRE 624 -224 528 -224
WIRE 384 -144 384 -224
WIRE 528 -128 528 -224
WIRE -1152 -32 -1216 -32
WIRE -1120 -32 -1152 -32
WIRE -1472 -16 -1920 -16
WIRE -1216 -16 -1216 -32
WIRE -1216 -16 -1472 -16
WIRE 384 -16 384 -64
WIRE 528 -16 528 -64
WIRE -896 0 -1008 0
WIRE -1152 16 -1152 -32
WIRE -1120 16 -1152 16
WIRE -1472 48 -1472 -16
WIRE -1920 80 -1920 -16
WIRE 144 80 -16 80
WIRE 256 80 208 80
WIRE 336 80 256 80
WIRE -1056 96 -1056 64
WIRE 336 128 336 80
WIRE -896 144 -896 0
WIRE -816 144 -896 144
WIRE -80 144 -80 80
WIRE -16 144 -16 80
WIRE -1920 176 -1920 160
WIRE -560 176 -704 176
WIRE -208 176 -560 176
WIRE -1472 192 -1472 128
WIRE -1280 192 -1472 192
WIRE -1152 192 -1280 192
WIRE -816 192 -896 192
WIRE -208 208 -208 176
WIRE -112 208 -208 208
WIRE 256 208 256 80
WIRE 256 208 16 208
WIRE 624 224 624 -224
WIRE -1152 240 -1152 192
WIRE -1120 240 -1152 240
WIRE -752 256 -752 240
WIRE 240 256 16 256
WIRE 336 256 336 192
WIRE 336 256 240 256
WIRE -896 272 -896 192
WIRE -896 272 -1008 272
WIRE -1152 288 -1152 240
WIRE -1120 288 -1152 288
WIRE -112 304 -432 304
WIRE 224 304 16 304
WIRE 432 304 304 304
WIRE 576 304 432 304
WIRE -1472 320 -1472 192
WIRE -1056 352 -1056 336
WIRE 112 352 16 352
WIRE 432 352 192 352
WIRE 544 352 432 352
WIRE -112 384 -144 384
WIRE -1216 416 -1216 -16
WIRE -848 416 -1216 416
WIRE -576 448 -736 448
WIRE -432 448 -432 304
WIRE -432 448 -576 448
WIRE 624 448 624 320
WIRE 1168 448 624 448
WIRE 1360 448 1248 448
WIRE 1504 448 1360 448
WIRE -1280 464 -1280 192
WIRE -848 464 -1280 464
WIRE -144 496 -144 384
WIRE -80 496 -80 448
WIRE -80 496 -144 496
WIRE -48 496 -80 496
WIRE -16 496 -16 448
WIRE -16 496 -48 496
WIRE -1472 512 -1472 384
WIRE -784 528 -784 512
WIRE -48 544 -48 496
WIRE 1504 560 1504 448
WIRE 1360 576 1360 448
WIRE 624 624 624 448
WIRE -1920 640 -1920 576
WIRE -1808 640 -1808 576
WIRE 544 704 544 352
WIRE 576 704 544 704
WIRE -1920 752 -1920 720
WIRE -1808 752 -1808 720
WIRE 1360 768 1360 640
WIRE 1504 768 1504 640
WIRE 624 1072 624 720
FLAG -1472 512 0
FLAG -752 256 0
FLAG -1056 352 0
FLAG -784 528 0
FLAG -1056 -48 Vdd
FLAG -752 128 Vdd
FLAG -1056 224 Vdd
FLAG -784 400 Vdd
FLAG -1920 752 0
FLAG -1920 576 Vdd
FLAG -560 176 HIN
FLAG -576 448 LIN
FLAG -1056 96 0
FLAG -1472 192 pwm_delay
FLAG -48 544 0
FLAG -1920 176 0
FLAG -80 80 Vdd
FLAG -1808 752 0
FLAG -1808 576 Vcc
FLAG -16 80 Vcc
FLAG 240 256 VS
FLAG 432 352 Low
FLAG 432 304 High
FLAG 1360 768 0
FLAG 1504 768 0
FLAG 624 1072 0
FLAG 384 -16 0
FLAG 528 -16 0
SYMBOL ir2110 -48 256 R0
WINDOW 0 0 0 Invisible 0
WINDOW 3 24 122 Top 2
SYMATTR InstName X1
SYMATTR SpiceModel ir2110
SYMBOL res -1488 32 R0
SYMATTR InstName R1
SYMATTR Value 10K
SYMBOL cap -1488 320 R0
SYMATTR InstName C1
SYMATTR Value 12p
SYMBOL voltage -1920 624 R0
SYMATTR InstName V1
SYMATTR Value 5
SYMBOL AutoGenerated/CD74HC02 -768 176 R0
SYMATTR InstName U1
SYMBOL AutoGenerated/CD74HC02 -1072 272 R0
SYMATTR InstName U2
SYMBOL AutoGenerated/CD74HC02 -800 448 R0
SYMATTR InstName U3
SYMBOL AutoGenerated/CD74HC02 -1072 0 R0
SYMATTR InstName U4
SYMBOL voltage -1920 64 R0
WINDOW 123 0 0 Left 0
WINDOW 39 0 0 Left 0
SYMATTR InstName PWM1
SYMATTR Value PULSE(0 5 0 0.1n 0.1n {Ts * D} {Ts})
SYMBOL voltage -1808 624 R0
SYMATTR InstName V2
SYMATTR Value 10
SYMBOL schottky 144 96 R270
WINDOW 0 32 32 VTop 2
WINDOW 3 0 32 VBottom 2
SYMATTR InstName D1
SYMATTR Value 1N5819
SYMATTR Description Diode
SYMATTR Type diode
SYMBOL cap 320 128 R0
SYMATTR InstName C2
SYMATTR Value 6.8µ
SYMBOL Res 320 288 R90
WINDOW 0 0 56 VBottom 2
WINDOW 3 32 56 VTop 2
SYMATTR InstName R2
SYMATTR Value 20
SYMBOL Res 208 336 R90
WINDOW 0 0 56 VBottom 2
WINDOW 3 32 56 VTop 2
SYMATTR InstName R3
SYMATTR Value 40
SYMBOL ind2 1264 432 R90
WINDOW 0 4 56 VBottom 2
WINDOW 3 32 56 VTop 2
SYMATTR InstName L1
SYMATTR Value 330µ
SYMATTR Type ind
SYMBOL cap 1344 576 R0
SYMATTR InstName C3
SYMATTR Value 4.7µ
SYMBOL res 1488 544 R0
SYMATTR InstName R4
SYMATTR Value 100
SYMBOL nmos 576 224 R0
SYMATTR InstName M1
SYMATTR Value irfz44n
SYMBOL nmos 576 624 R0
SYMATTR InstName M2
SYMATTR Value irfz44n
SYMBOL Voltage 384 -160 R0
SYMATTR InstName Bateria
SYMATTR Value {Vin}
SYMBOL Cap 512 -128 R0
SYMATTR InstName C4
SYMATTR Value 2µ
TEXT -1856 432 Left 2 ;.tran 7.5u
TEXT -1392 608 Left 2 !.include CD74HC02.cir
TEXT -1152 736 Left 2 !.param fs=200k\n.param Ts=1/fs
TEXT -1392 736 Left 2 !.param D {6.35/Vin}
TEXT -1392 712 Left 2 !.param Vin 24
TEXT -1392 784 Left 2 !.tran 0 {1003*Ts} {1000*Ts} {Ts/10}
TEXT -1384 656 Left 2 !.include irfz44n.spi
TEXT -1384 680 Left 2 !.include ir2110.lib
TEXT -1392 848 Left 2 !.options reltol=0.003
