Version 4
SHEET 1 1016 1508
WIRE -64 672 -128 672
WIRE -32 672 -64 672
WIRE -704 688 -736 688
WIRE -384 688 -704 688
WIRE -128 688 -128 672
WIRE -128 688 -384 688
WIRE 192 704 80 704
WIRE -64 720 -64 672
WIRE -32 720 -64 720
WIRE -384 752 -384 688
WIRE -736 784 -736 688
WIRE 32 800 32 768
WIRE 192 848 192 704
WIRE 272 848 192 848
WIRE 528 880 384 880
WIRE 544 880 528 880
WIRE -384 896 -384 832
WIRE -192 896 -384 896
WIRE -64 896 -192 896
WIRE 272 896 192 896
WIRE -736 912 -736 864
WIRE -64 944 -64 896
WIRE -32 944 -64 944
WIRE 336 960 336 944
WIRE 192 976 192 896
WIRE 192 976 80 976
WIRE -64 992 -64 944
WIRE -32 992 -64 992
WIRE -384 1024 -384 896
WIRE 32 1056 32 1040
WIRE -128 1120 -128 688
WIRE 240 1120 -128 1120
WIRE 512 1152 352 1152
WIRE 544 1152 512 1152
WIRE -192 1168 -192 896
WIRE 240 1168 -192 1168
WIRE -384 1216 -384 1088
WIRE 304 1232 304 1216
WIRE -832 1344 -832 1280
WIRE -832 1456 -832 1424
FLAG -384 1216 0
FLAG -736 912 0
FLAG 336 960 0
FLAG 32 1056 0
FLAG 304 1232 0
FLAG 32 656 Vdd
FLAG 336 832 Vdd
FLAG 32 928 Vdd
FLAG 304 1104 Vdd
FLAG -832 1456 0
FLAG -832 1280 Vdd
FLAG -704 688 PWM
FLAG 528 880 HIN
FLAG 512 1152 LIN
FLAG 32 800 0
SYMBOL res -400 736 R0
SYMATTR InstName R3
SYMATTR Value 1k
SYMBOL cap -400 1024 R0
SYMATTR InstName C3
SYMATTR Value 150p
SYMBOL voltage -736 768 R0
WINDOW 123 0 0 Left 0
WINDOW 39 0 0 Left 0
SYMATTR InstName V2
SYMATTR Value PULSE(0 6 0 0.1n 0.1n 2.5u 5u)
SYMBOL voltage -832 1328 R0
SYMATTR InstName V1
SYMATTR Value 6
SYMBOL AutoGenerated/CD74HC02 320 880 R0
SYMATTR InstName U2
SYMBOL AutoGenerated/CD74HC02 16 976 R0
SYMATTR InstName U3
SYMBOL AutoGenerated/CD74HC02 288 1152 R0
SYMATTR InstName U4
SYMBOL AutoGenerated/CD74HC02 16 704 R0
SYMATTR InstName U1
TEXT -768 1136 Left 2 !.tran 7.5u
TEXT -304 1312 Left 2 !.include CD74HC02.cir
